Circuit: * Z:\home\ostoja\Elektronika\LNWBA\LNWBA.asc

Warning: Multiple definitions of model "lsk389b" Type: JFET
Direct Newton iteration failed to find .op point.  (Use ".option noopiter" to skip.)
Starting Gmin stepping
Gmin = 10
Gmin = 1.07374
Gmin = 0.115292
Gmin = 0.0123794
Gmin = 0.00132923
Gmin = 0.000142725
Gmin = 1.5325e-005
Gmin = 1.6455e-006
Gmin = 1.76685e-007
Gmin = 1.89714e-008
Gmin = 2.03704e-009
Gmin = 2.18725e-010
Gmin = 2.34854e-011
Gmin = 2.52173e-012
Gmin = 2.70769e-013
Gmin = 0
Gmin stepping succeeded in finding the operating point.

Heightened Def Con from 6.8074e-007 to 6.8074e-007
Heightened Def Con from 6.8074e-007 to 6.8074e-007
Heightened Def Con from 3.48074e-006 to 3.48074e-006

Date: Tue Nov 05 12:11:03 2024
Total elapsed time: 1.434 seconds.

tnom = 27
temp = 27
method = modified trap
totiter = 186191
traniter = 185682
tranpoints = 39889
accept = 32147
rejected = 7745
matrix size = 130
fillins = 107
solver = Normal
Thread vector: 4.7/3.3[3] 2.6/2.6[1] 1.7/1.6[1] 0.2/0.8[1]  2592/500
Matrix Compiler1: 10.67 KB object code size  1.7/0.9/[0.5]
Matrix Compiler2: 12.81 KB object code size  0.9/1.0/[0.6]

