Circuit: * Z:\home\ostoja\Elektronika\LNWBA\LNWBA_bjt.asc

WARNING: Less than two connections to node -5V.  This node is used by V4.
Direct Newton iteration for .op point succeeded.

Date: Tue Nov 05 11:00:50 2024
Total elapsed time: 0.834 seconds.

tnom = 27
temp = 27
method = modified trap
totiter = 389111
traniter = 389106
tranpoints = 194554
accept = 116737
rejected = 77817
matrix size = 20
fillins = 2
solver = Normal
Matrix Compiler1:      62 opcodes  0.3/[0.2]/0.2
Matrix Compiler2:     118 opcodes  0.2/[0.2]/0.2

