Circuit: * Z:\home\ostoja\Elektronika\LNWBA\LNWBA.asc

Warning: Multiple definitions of model "lsk389b" Type: JFET
WARNING: Node N005 is floating.

Direct Newton iteration for .op point succeeded.
Heightened Def Con from 1.34883e-010 to 1.34883e-010

Date: Mon Nov 04 11:00:03 2024
Total elapsed time: 6.321 seconds.

tnom = 27
temp = 27
method = modified trap
totiter = 1439615
traniter = 1439569
tranpoints = 239903
accept = 179922
rejected = 59982
matrix size = 103
fillins = 181
solver = Normal
Matrix Compiler1: 14.51 KB object code size  1.7/0.7/[0.6]
Matrix Compiler2: 11.76 KB object code size  0.6/0.7/[0.5]

