Circuit: * Z:\home\ostoja\Elektronika\LNWBA\LNWBA.asc

Warning: Multiple definitions of model "lsk389b" Type: JFET
Direct Newton iteration failed to find .op point.  (Use ".option noopiter" to skip.)
Starting Gmin stepping
Gmin = 10
Gmin = 1.07374
Gmin = 0.115292
Gmin = 0.0123794
Gmin = 0.00132923
Gmin = 0.000142725
Gmin = 1.5325e-005
Gmin = 1.6455e-006
Gmin = 1.76685e-007
Gmin = 1.89714e-008
Gmin = 2.03704e-009
Gmin = 2.18725e-010
Gmin = 2.34854e-011
Gmin = 2.52173e-012
Gmin = 2.70769e-013
Gmin = 0
Gmin stepping succeeded in finding the operating point.


Date: Fri Nov 01 08:39:23 2024
Total elapsed time: 0.124 seconds.

tnom = 27
temp = 27
method = modified trap
totiter = 8124
traniter = 7762
tranpoints = 3882
accept = 2418
rejected = 1464
matrix size = 18
fillins = 21
solver = Normal
Matrix Compiler1: 1.85 KB object code size  0.3/0.2/[0.2]
Matrix Compiler2: 2.02 KB object code size  0.2/0.2/[0.2]

